/*--------------------------------*- C++ -*----------------------------------*\
| =========                 |                                                 |
| \\      /  F ield         | foam-extend: Open Source CFD                    |
|  \\    /   O peration     | Version:     3.1                                |
|   \\  /    A nd           | Web:         http://www.extend-project.de       |
|    \\/     M anipulation  |                                                 |
\*---------------------------------------------------------------------------*/
FoamFile
{
    version     2.0;
    format      ascii;
    class       dictionary;
    object      faceSetDict;
}
// * * * * * * * * * * * * * * * * * * * * * * * * * * * * * * * * * * * * * //

// Name of set to operate on
name ball1;

// One of clear/new/invert/add/delete|subset/list
action subset;

// Actions to apply to pointSet. These are all the topoSetSource's ending
// in ..ToFace (see the meshTools library).
topoSetSources
(
    // Faces with normal to within certain angle aligned with vector.
    normalToFace
    {
      normal (NNXX NNYY NNZZ);     // Vector
        cos     1.0;       // Tolerance (max cos of angle)
    }
);

// ************************************************************************* //
