/*--------------------------------*- C++ -*----------------------------------*\
| =========                 |                                                 |
| \\      /  F ield         | OpenFOAM: The Open Source CFD Toolbox           |
|  \\    /   O peration     | Version:  v1806                                 |
|   \\  /    A nd           | Web:      www.OpenFOAM.com                      |
|    \\/     M anipulation  |                                                 |
\*---------------------------------------------------------------------------*/
FoamFile
{
    version     2.0;
    format      binary;
    class       polyBoundaryMesh;
    arch        "LSB;label=32;scalar=64";
    location    "constant/polyMesh";
    object      boundary;
}
// * * * * * * * * * * * * * * * * * * * * * * * * * * * * * * * * * * * * * //

6
(
    sides
    {
        type            wall;
        physicalType    wall;
        nFaces          248;
        startFace       19731;
    }
    inlet
    {
        type            wall;
        physicalType    wall;
        nFaces          69;
        startFace       19979;
    }
    outlet
    {
        type            wall;
        physicalType    wall;
        nFaces          69;
        startFace       20048;
    }
    ballOut
    {
        type            overset;
        physicalType    overset;
        nFaces          76;
        startFace       20117;
    }
    ballIn
    {
        type            wall;
        physicalType    wall;
        nFaces          76;
        startFace       20193;
    }
    frontAndBack
    {
        type            empty;
        nFaces          20000;
        startFace       20269;
    }
)

// ************************************************************************* //
